REMARK  5 active torsions:
REMARK  status: ('A' for Active; 'I' for Inactive)
REMARK    1  A    between atoms: S_1  and  O_11 
REMARK    2  A    between atoms: S_1  and  C_15 
REMARK    3  A    between atoms: C_14  and  C_15 
REMARK    4  A    between atoms: C_14  and  C_16 
REMARK    5  A    between atoms: C_16  and  C_17 
ROOT
HETATM    1  F   LIG     1      -0.653   1.970   0.831  1.00  0.00    -0.191 F 
HETATM    2  F   LIG     1       0.403   1.892  -1.067  1.00  0.00    -0.191 F 
HETATM    3  C   LIG     1      -0.084   1.108  -0.060  1.00  0.00     0.397 C 
ENDROOT
BRANCH   3   4
HETATM    4  C   LIG     1       1.107   0.445   0.613  1.00  0.00     0.424 C 
HETATM    5  F   LIG     1       1.973   1.392   1.057  1.00  0.00    -0.179 F 
HETATM    6  F   LIG     1       0.643  -0.183   1.732  1.00  0.00    -0.179 F 
BRANCH   4   7
HETATM    7  S   LIG     1       1.968  -0.744  -0.402  1.00  0.00     0.174 S 
HETATM    8  O   LIG     1       2.467  -0.084  -1.589  1.00  0.00    -0.597 OA
HETATM    9  O   LIG     1       1.187  -1.962  -0.472  1.00  0.00    -0.597 OA
BRANCH   7  10
HETATM   10  O   LIG     1       3.223  -0.992   0.610  1.00  0.00    -0.291 OA
HETATM   11  H   LIG     1       3.008  -1.477   1.441  1.00  0.00     0.232 HD
ENDBRANCH   7  10
ENDBRANCH   4   7
ENDBRANCH   3   4
BRANCH   3  12
HETATM   12  C   LIG     1      -1.191   0.241  -0.639  1.00  0.00     0.410 C 
HETATM   13  F   LIG     1      -2.100   1.017  -1.281  1.00  0.00    -0.189 F 
HETATM   14  F   LIG     1      -0.629  -0.548  -1.601  1.00  0.00    -0.189 F 
BRANCH  12  15
HETATM   15  C   LIG     1      -1.912  -0.665   0.328  1.00  0.00     0.461 C 
HETATM   16  F   LIG     1      -2.508   0.042   1.312  1.00  0.00    -0.165 F 
HETATM   17  F   LIG     1      -2.857  -1.409  -0.280  1.00  0.00    -0.165 F 
HETATM   18  F   LIG     1      -1.040  -1.519   0.909  1.00  0.00    -0.165 F 
ENDBRANCH  12  15
ENDBRANCH   3  12
TORSDOF 5
